1
    SWAT Jun 11 2014    VER 2012/Rev 627                                                                 0/ 0/   0      0: 0: 0

    General Input/Output section (file.cio):                                        
    7/8/2014 12:00:00 AM ARCGIS-SWAT interface AV                                   
                                                                                    
         Number of years in run:    1
         Area of watershed:   106124.000 km2
         Random number generator cycles: 0, use default numbers

         Initial random number seed: wet/dry day prob        748932582
         Initial random number seed: radiation              1948832765
         Initial random number seed: precipitation           857034417
         Initial random number seed: 0.5 hr rainfall          67377721
         Initial random number seed: wind speed              366304404
         Initial random number seed: irrigation             1094585182
         Initial random number seed: relative humidity      1767585417
         Initial random number seed: max temperature         608439319
         Initial random number seed: min temperature         592757081

         Precipitation data used in run:
          Multiple gages read for watershed
             Daily rainfall data used

         Temperature data used in run:
          Multiple gages read for watershed

         PET method used: Penman-Monteith

         Rainfall/Runoff/Routing Option:
          Daily rainfall data
          Runoff estimated with curve number method
          Daily stream routing
           Variable Storage routing method
           Channel dimensions remain constant
           Subbasin algae/CBOD loadings not modeled
           In-stream nutrient transformations modeled using QUAL2E equations

         Subbasin Input Summary:
          Sub Latitude  Elev(m) #HRUs Ponds Elevbnds Wetlnd
            1    36.71   781.64    24                   
            2    36.71   678.08    39                   
            3    36.71   136.58    60                   
            4    36.71   471.80    57                   
            5    36.71   473.43    33                   
            6    36.71   544.07    66                   
            7    36.71   134.20    39                   
            8    36.71   941.69    39                   
            9    36.71   731.07    27                   
           10    36.71   518.13    63                   
           11    36.71   408.07    51                   
           12    36.71   586.65    42                   
           13    36.71   696.61    27                   
           14    36.71   149.94    66                   
           15    36.71   351.18    54                   
           16    36.71   340.91    75                   
           17    36.71   282.12    43                   
           18    36.71   510.37    45                   
           19    36.71   333.76    69                   
           20    36.71   277.71    66                   
           21    36.71   488.21    51                   
           22    36.71   314.82    63                   
           23    36.71   980.66    60                   
           24    36.71   431.53    66                   
           25    36.81   178.04    39                   
           26    36.81   416.43    63                   
           27    36.81   792.12    48                   
           28    36.81   349.04    39                   
           29    36.81   221.25    36                   
           30    36.81  1042.15    45                   
           31    36.81   904.58    33                   
           32    36.81   687.37    48                   
           33    36.81   235.85    51                   
           34    36.81   310.77    54                   
           35    36.81   261.36    60                   
           36    36.81   163.81    81                   
           37    36.81   364.18    60                   
           38    36.81   238.58    54                   
           39    36.81   696.39    51                   
           40    36.81   270.88    45                   
           41    36.81   357.54    81                   
           42    36.81   327.49    66                   
           43    36.81   308.38    78                   
           44    36.81   628.33    42                   
           45    36.81   417.77    66                   
           46    36.81   427.47    39                   
           47    36.81   371.37    51                   
           48    36.81   261.10    63                   
           49    36.81   142.44    84                   
           50    36.81   183.89    72                   
           51    36.81   221.14    93                   
           52    36.81   247.98    48                   
           53    36.81   244.93    81                   
           54    36.81   216.12    54                   
           55    36.81   326.22    72                   

         HRU Input Summary Table 1:
          Sub   HRU   Area(ha) Slope SlpLgth(m) Ovrlnd_N CondII_CN TimeConc(hr) ESCO EPCO
            1      1   42126.67 0.137      24.39    0.300     91.35        2.828 0.88 0.79
            1      2    5823.79 0.036      91.46    0.300     91.35        1.541 0.88 0.79
            1      3    1502.99 0.013     121.95    0.300     91.35        1.909 0.88 0.79
            1      4   38429.90 0.379       9.15    0.100     91.35        2.372 0.88 0.79
            1      5     229.01 0.037      91.46    0.100     91.35        0.590 0.88 0.79
            1      6      49.51 0.014     121.95    0.100     91.35        0.904 0.88 0.79
            1      7   43540.48 0.342       9.15    0.100     91.35        2.640 0.88 0.79
            1      8     554.18 0.037      91.46    0.100     91.35        0.620 0.88 0.79
            1      9     139.73 0.012     121.95    0.100     91.35        0.957 0.88 0.79
            1     10   28009.63 0.227      15.24    0.100     91.35        1.857 0.88 0.79
            1     11    1452.36 0.036      91.46    0.100     91.35        0.700 0.88 0.79
            1     12     437.86 0.012     121.95    0.100     91.35        0.986 0.88 0.79
            1     13     497.13 0.013     121.95    0.100     97.87        0.969 0.88 0.79
            1     14    1695.05 0.036      91.46    0.100     97.87        0.719 0.88 0.79
            1     15    8021.45 0.134      24.39    0.100     97.87        0.758 0.88 0.79
            1     16    2347.40 0.160      24.39    0.150     91.35        0.409 0.88 0.79
            1     17     255.54 0.036      91.46    0.150     91.35        0.754 0.88 0.79
            1     18      97.46 0.012     121.95    0.150     91.35        1.211 0.88 0.79
            1     19     525.28 0.161      18.29    0.150     91.35        0.230 0.88 0.79
            1     20      46.85 0.037      91.46    0.150     91.35        0.726 0.88 0.79
            1     21      11.75 0.012     121.95    0.150     91.35        1.201 0.88 0.79
            1     22     105.72 0.035      91.46    0.150     91.35        0.745 0.88 0.79
            1     23      25.53 0.013     121.95    0.150     91.35        1.174 0.88 0.79
            1     24     602.30 0.158      24.39    0.150     91.35        0.271 0.88 0.79
            2     25     535.34 0.013     121.95    0.300     59.00        1.891 0.95 1.00
            2     26    2074.81 0.036      91.46    0.300     59.00        1.482 0.95 1.00
            2     27   30223.06 0.193      18.29    0.300     59.00        4.242 0.95 1.00
            2     28    5628.31 0.221      15.24    0.300     59.00        1.134 0.95 1.00
            2     29     197.74 0.011     121.95    0.300     59.00        1.914 0.95 1.00
            2     30     497.33 0.035      91.46    0.300     59.00        1.219 0.95 1.00
            2     31     363.63 0.037      91.46    0.100     66.00        0.647 0.95 1.00
            2     32      93.47 0.012     121.95    0.100     66.00        0.965 0.95 1.00
            2     33   46559.36 0.381       9.15    0.100     66.00        5.892 0.95 1.00
            2     34     116.68 0.013     121.95    0.100     66.00        0.948 0.95 1.00
            2     35     524.40 0.037      91.46    0.100     66.00        0.679 0.95 1.00
            2     36   31611.41 0.296       9.15    0.100     66.00        4.225 0.95 1.00
            2     37      63.79 0.012     121.95    0.100     66.00        0.958 0.95 1.00
            2     38   34948.43 0.363       9.15    0.100     66.00        4.601 0.95 1.00
            2     39     285.84 0.036      91.46    0.100     66.00        0.636 0.95 1.00
            2     40     329.54 0.036      91.46    0.100     66.00        0.645 0.95 1.00
            2     41   19773.62 0.355       9.15    0.100     66.00        2.824 0.95 1.00
            2     42     132.63 0.010     121.95    0.100     66.00        1.027 0.95 1.00
            2     43    1128.31 0.236      15.24    0.100     97.22        0.335 0.95 1.00
            2     44      41.17 0.011     121.95    0.100     97.22        0.977 0.95 1.00
            2     45     103.91 0.036      91.46    0.100     97.22        0.597 0.95 1.00
            2     46     106.90 0.013     121.95    0.100     97.22        0.946 0.95 1.00
            2     47    3933.89 0.196      18.29    0.100     97.22        0.800 0.95 1.00
            2     48     394.08 0.036      91.46    0.100     97.22        0.658 0.95 1.00
            2     49    1471.11 0.195      18.29    0.100     97.48        0.414 0.95 1.00
            2     50      63.41 0.013     121.95    0.100     97.48        0.936 0.95 1.00
            2     51     230.91 0.036      91.46    0.100     97.48        0.625 0.95 1.00
            2     52     947.60 0.206      15.24    0.150     69.00        0.339 0.95 1.00
            2     53      78.09 0.036      91.46    0.150     69.00        0.747 0.95 1.00
            2     54      24.79 0.012     121.95    0.150     69.00        1.207 0.95 1.00
            2     55      78.35 0.037      91.46    0.150     79.00        0.741 0.95 1.00
            2     56      17.69 0.013     121.95    0.150     79.00        1.176 0.95 1.00
            2     57    1080.11 0.184      18.29    0.150     79.00        0.385 0.95 1.00
            2     58      47.33 0.013     121.95    0.150     69.00        1.184 0.95 1.00
            2     59     193.31 0.036      91.46    0.150     69.00        0.773 0.95 1.00
            2     60    3383.22 0.197      18.29    0.150     69.00        0.753 0.95 1.00
            2     61    1609.71 0.202      15.24    0.150     79.00        0.454 0.95 1.00
            2     62      38.12 0.012     121.95    0.150     79.00        1.210 0.95 1.00
            2     63     123.17 0.036      91.46    0.150     79.00        0.758 0.95 1.00
            3     64     639.51 0.030      91.46    0.140     77.00        0.851 0.95 1.00
            3     65     171.78 0.087      60.98    0.140     77.00        0.455 0.95 1.00
            3     66    3079.82 0.008     121.95    0.140     77.00        1.756 0.95 1.00
            3     67     430.25 0.066      60.98    0.140     77.00        0.537 0.95 1.00
            3     68    5407.22 0.011     121.95    0.140     77.00        1.928 0.95 1.00
            3     69    2758.65 0.031      91.46    0.140     77.00        1.143 0.95 1.00
            3     70    1695.56 0.033      91.46    0.140     77.00        0.985 0.95 1.00
            3     71     942.14 0.077      60.98    0.140     77.00        0.597 0.95 1.00
            3     72    1203.22 0.012     121.95    0.140     77.00        1.351 0.95 1.00
            3     73     262.59 0.087      60.98    0.140     78.00        0.472 0.95 1.00
            3     74    4906.84 0.007     121.95    0.140     78.00        2.039 0.95 1.00
            3     75     840.15 0.030      91.46    0.140     78.00        0.882 0.95 1.00
            3     76    2718.79 0.030      91.46    0.140     78.00        1.145 0.95 1.00
            3     77    6047.35 0.011     121.95    0.140     78.00        2.005 0.95 1.00
            3     78     391.74 0.065      60.98    0.140     78.00        0.532 0.95 1.00
            3     79    1286.84 0.012     121.95    0.140     78.00        1.363 0.95 1.00
            3     80    1113.38 0.078      60.98    0.140     78.00        0.620 0.95 1.00
            3     81    1763.45 0.034      91.46    0.140     78.00        0.989 0.95 1.00
            3     82    3499.11 0.011     121.95    0.140     73.00        1.691 0.95 1.00
            3     83     224.62 0.067      60.98    0.140     73.00        0.499 0.95 1.00
            3     84    1631.46 0.030      91.46    0.140     73.00        0.997 0.95 1.00
            3     85     736.80 0.033      91.46    0.140     73.00        0.845 0.95 1.00
            3     86     319.54 0.073      60.98    0.140     73.00        0.504 0.95 1.00
            3     87     587.09 0.012     121.95    0.140     73.00        1.257 0.95 1.00
            3     88    1528.10 0.011     121.95    0.300     59.00        2.112 0.95 1.00
            3     89    1391.04 0.033      91.46    0.300     59.00        1.357 0.95 1.00
            3     90     580.25 0.071      60.98    0.300     59.00        0.809 0.95 1.00
            3     91    2169.68 0.083      60.98    0.300     59.00        1.007 0.95 1.00
            3     92    2182.59 0.035      91.46    0.300     59.00        1.447 0.95 1.00
            3     93    1089.31 0.012     121.95    0.300     59.00        2.001 0.95 1.00
            3     94    8056.93 0.007     121.95    0.100     66.00        2.165 0.95 1.00
            3     95    2264.73 0.032      91.46    0.100     66.00        0.938 0.95 1.00
            3     96    2238.51 0.103      60.98    0.100     66.00        0.671 0.95 1.00
            3     97    4584.89 0.082      60.98    0.100     66.00        0.996 0.95 1.00
            3     98    5761.66 0.033      91.46    0.100     66.00        1.374 0.95 1.00
            3     99    6077.09 0.011     121.95    0.100     66.00        1.793 0.95 1.00
            3    100   24766.65 0.094      60.98    0.100     66.00        3.166 0.95 1.00
            3    101   11339.74 0.036      91.46    0.100     66.00        1.998 0.95 1.00
            3    102    4036.45 0.012     121.95    0.100     66.00        1.519 0.95 1.00
            3    103    2265.78 0.032      91.46    0.100     97.22        0.939 0.95 1.00
            3    104     763.25 0.072      60.98    0.100     97.22        0.497 0.95 1.00
            3    105    3393.31 0.011     121.95    0.100     97.22        1.462 0.95 1.00
            3    106    2351.62 0.035      91.46    0.100     97.22        0.934 0.95 1.00
            3    107    1362.76 0.012     121.95    0.100     97.22        1.164 0.95 1.00
            3    108    2268.29 0.081      60.98    0.100     97.22        0.699 0.95 1.00
            3    109    5469.70 0.011     121.95    0.150     69.00        1.986 0.95 1.00
            3    110    2464.07 0.074      60.98    0.150     69.00        0.834 0.95 1.00
            3    111    5222.52 0.033      91.46    0.150     69.00        1.470 0.95 1.00
            3    112    9473.79 0.084      60.98    0.150     69.00        1.663 0.95 1.00
            3    113    7692.22 0.035      91.46    0.150     69.00        1.750 0.95 1.00
            3    114    3383.69 0.012     121.95    0.150     69.00        1.695 0.95 1.00
            3    115     200.42 0.029      91.46    0.050     66.00        0.442 0.95 1.00
            3    116      39.27 0.087      60.98    0.050     66.00        0.236 0.95 1.00
            3    117    3370.95 0.005     121.95    0.050     66.00        1.301 0.95 1.00
            3    118    1410.08 0.006     121.95    0.050     66.00        0.994 0.95 1.00
            3    119     384.85 0.091      60.98    0.050     66.00        0.297 0.95 1.00
            3    120     418.18 0.033      91.46    0.050     66.00        0.465 0.95 1.00
            3    121     212.06 0.032      91.46    0.050     77.00        0.433 0.95 1.00
            3    122    1046.68 0.006     121.95    0.050     77.00        0.941 0.95 1.00
            3    123     172.79 0.089      60.98    0.050     77.00        0.261 0.95 1.00
            4    124      45.15 0.013     121.95    0.300     59.00        1.782 0.95 1.00
            4    125     211.05 0.037      91.46    0.300     59.00        1.122 0.95 1.00
            4    126    1079.84 0.128      24.39    0.300     59.00        0.471 0.95 1.00
            4    127     870.25 0.158      24.39    0.300     72.00        0.428 0.95 1.00
            4    128     178.79 0.034      91.46    0.300     72.00        1.146 0.95 1.00
            4    129     144.59 0.011     121.95    0.300     72.00        1.887 0.95 1.00
            4    130     662.24 0.188      18.29    0.300     59.00        0.340 0.95 1.00
            4    131       9.13 0.012     121.95    0.300     59.00        1.819 0.95 1.00
            4    132      32.25 0.038      91.46    0.300     59.00        1.088 0.95 1.00
            4    133     132.27 0.036      91.46    0.100     77.00        0.590 0.95 1.00
            4    134      50.39 0.010     121.95    0.100     77.00        1.002 0.95 1.00
            4    135    2439.36 0.208      15.24    0.100     77.00        0.382 0.95 1.00
            4    136     186.37 0.037      91.46    0.100     66.00        0.592 0.95 1.00
            4    137      40.61 0.014     121.95    0.100     66.00        0.905 0.95 1.00
            4    138    3249.00 0.202      15.24    0.100     66.00        0.459 0.95 1.00
            4    139     141.66 0.011     121.95    0.100     77.00        0.987 0.95 1.00
            4    140     348.14 0.036      91.46    0.100     77.00        0.617 0.95 1.00
            4    141    7274.44 0.246      15.24    0.100     77.00        0.805 0.95 1.00
            4    142    2601.00 0.345       9.15    0.100     66.00        0.355 0.95 1.00
            4    143      31.75 0.038      91.46    0.100     66.00        0.566 0.95 1.00
            4    144       6.61 0.013     121.95    0.100     66.00        0.919 0.95 1.00
            4    145     881.05 0.157      24.39    0.100     97.48        0.275 0.95 1.00
            4    146      97.28 0.037      91.46    0.100     97.48        0.580 0.95 1.00
            4    147      29.37 0.011     121.95    0.100     97.48        0.970 0.95 1.00
            4    148      67.68 0.013     121.95    0.100     97.22        0.929 0.95 1.00
            4    149    2134.60 0.148      24.39    0.100     97.22        0.406 0.95 1.00
            4    150     298.21 0.036      91.46    0.100     97.22        0.611 0.95 1.00
            4    151     275.57 0.010     121.95    0.100     97.48        1.032 0.95 1.00
            4    152    1984.74 0.171      18.29    0.100     97.48        0.359 0.95 1.00
            4    153     369.02 0.035      91.46    0.100     97.48        0.625 0.95 1.00
            4    154      66.31 0.013     121.95    0.100     63.29        0.929 0.95 1.00
            4    155     231.29 0.036      91.46    0.100     63.29        0.603 0.95 1.00
            4    156    1225.89 0.133      24.39    0.100     63.29        0.320 0.95 1.00
            4    157     198.71 0.034      91.46    0.100     74.86        0.608 0.95 1.00
            4    158     170.06 0.010     121.95    0.100     74.86        1.019 0.95 1.00
            4    159     733.96 0.155      24.39    0.100     74.86        0.260 0.95 1.00
            4    160     228.75 0.012     121.95    0.100     63.29        0.974 0.95 1.00
            4    161     321.29 0.123      24.39    0.100     63.29        0.223 0.95 1.00
            4    162     256.59 0.033      91.46    0.100     63.29        0.621 0.95 1.00
            4    163      21.44 0.013     121.95    0.100     73.82        0.922 0.95 1.00
            4    164      45.17 0.035      91.46    0.100     73.82        0.582 0.95 1.00
            4    165     128.64 0.111      60.98    0.100     73.82        0.338 0.95 1.00
            4    166     119.28 0.009     121.95    0.100     81.88        1.044 0.95 1.00
            4    167      84.46 0.033      91.46    0.100     81.88        0.598 0.95 1.00
            4    168     187.85 0.140      24.39    0.100     81.88        0.200 0.95 1.00
            4    169     149.87 0.011     121.95    0.100     73.82        0.988 0.95 1.00
            4    170      94.80 0.106      60.98    0.100     73.82        0.338 0.95 1.00
            4    171     120.48 0.032      91.46    0.100     73.82        0.608 0.95 1.00
            4    172      17.94 0.012     121.95    0.150     79.00        1.202 0.95 1.00
            4    173     818.03 0.166      18.29    0.150     79.00        0.277 0.95 1.00
            4    174      81.73 0.037      91.46    0.150     79.00        0.733 0.95 1.00
            4    175    3004.28 0.135      24.39    0.150     69.00        0.542 0.95 1.00
            4    176     102.25 0.013     121.95    0.150     69.00        1.187 0.95 1.00
            4    177     452.40 0.037      91.46    0.150     69.00        0.781 0.95 1.00
            4    178     171.79 0.012     121.95    0.150     79.00        1.225 0.95 1.00
            4    179     354.02 0.035      91.46    0.150     79.00        0.781 0.95 1.00
            4    180    2605.47 0.173      18.29    0.150     79.00        0.456 0.95 1.00
            5    181      12.88 0.013     121.95    0.300     72.00        1.777 0.95 1.00
            5    182     450.00 0.132      24.39    0.300     72.00        0.420 0.95 1.00
            5    183      61.38 0.037      91.46    0.300     72.00        1.105 0.95 1.00
            5    184     197.66 0.036      91.46    0.300     59.00        1.140 0.95 1.00
            5    185     789.91 0.114      60.98    0.300     59.00        0.746 0.95 1.00
            5    186      59.29 0.013     121.95    0.300     59.00        1.788 0.95 1.00
            5    187      90.71 0.036      91.46    0.100     77.00        0.589 0.95 1.00
            5    188    2216.75 0.220      15.24    0.100     77.00        0.448 0.95 1.00
            5    189      37.00 0.009     121.95    0.100     77.00        1.034 0.95 1.00
            5    190      52.96 0.012     121.95    0.100     66.00        0.953 0.95 1.00
            5    191    2167.24 0.190      18.29    0.100     66.00        0.460 0.95 1.00
            5    192     166.33 0.036      91.46    0.100     66.00        0.603 0.95 1.00
            5    193      13.27 0.038      91.46    0.100     77.00        0.563 0.95 1.00
            5    194     606.10 0.247      15.24    0.100     77.00        0.217 0.95 1.00
            5    195       3.45 0.012     121.95    0.100     77.00        0.941 0.95 1.00
            5    196      32.88 0.012     121.95    0.100     97.48        0.948 0.95 1.00
            5    197    1130.86 0.152      24.39    0.100     97.48        0.353 0.95 1.00
            5    198     134.70 0.036      91.46    0.100     97.48        0.598 0.95 1.00
            5    199      86.80 0.012     121.95    0.100     97.22        0.959 0.95 1.00
            5    200     270.82 0.036      91.46    0.100     97.22        0.622 0.95 1.00
            5    201    1521.59 0.133      24.39    0.100     97.22        0.415 0.95 1.00
            5    202     280.96 0.139      24.39    0.100     74.86        0.227 0.95 1.00
            5    203       7.56 0.013     121.95    0.100     74.86        0.920 0.95 1.00
            5    204      32.31 0.037      91.46    0.100     74.86        0.572 0.95 1.00
            5    205      41.50 0.012     121.95    0.100     63.29        0.950 0.95 1.00
            5    206     456.67 0.121      24.39    0.100     63.29        0.263 0.95 1.00
            5    207     111.09 0.036      91.46    0.100     63.29        0.593 0.95 1.00
            5    208    1840.83 0.148      24.39    0.150     79.00        0.499 0.95 1.00
            5    209     179.48 0.037      91.46    0.150     79.00        0.757 0.95 1.00
            5    210      45.03 0.012     121.95    0.150     79.00        1.210 0.95 1.00
            5    211     431.14 0.037      91.46    0.150     69.00        0.799 0.95 1.00
            5    212    2700.46 0.132      24.39    0.150     69.00        0.620 0.95 1.00
            5    213     106.03 0.013     121.95    0.150     69.00        1.194 0.95 1.00
            6    214    1073.24 0.121      24.39    0.300     72.00        0.507 0.95 1.00
            6    215     205.24 0.036      91.46    0.300     72.00        1.138 0.95 1.00
            6    216      52.24 0.013     121.95    0.300     72.00        1.785 0.95 1.00
            6    217      71.97 0.012     121.95    0.300     59.00        1.832 0.95 1.00
            6    218     251.68 0.036      91.46    0.300     59.00        1.145 0.95 1.00
            6    219    1055.47 0.115      60.98    0.300     59.00        0.768 0.95 1.00
            6    220     225.33 0.012     121.95    0.300     59.00        1.858 0.95 1.00
            6    221     864.05 0.037      91.46    0.300     59.00        1.224 0.95 1.00
            6    222    6953.24 0.141      24.39    0.300     59.00        1.159 0.95 1.00
            6    223   18988.64 0.347       9.15    0.100     77.00        2.068 0.95 1.00
            6    224     185.77 0.009     121.95    0.100     77.00        1.059 0.95 1.00
            6    225     448.21 0.036      91.46    0.100     77.00        0.644 0.95 1.00
            6    226      56.28 0.038      91.46    0.100     77.00        0.572 0.95 1.00
            6    227    6546.76 0.349       9.15    0.100     77.00        0.858 0.95 1.00
            6    228       6.75 0.014     121.95    0.100     77.00        0.899 0.95 1.00
            6    229      81.11 0.012     121.95    0.100     66.00        0.957 0.95 1.00
            6    230     312.53 0.037      91.46    0.100     66.00        0.619 0.95 1.00
            6    231    6872.21 0.213      15.24    0.100     66.00        0.934 0.95 1.00
            6    232     139.13 0.139      24.39    0.010     92.00        0.070 0.95 1.00
            6    233      35.13 0.034      91.46    0.010     92.00        0.153 0.95 1.00
            6    234     164.52 0.003     121.95    0.010     92.00        0.389 0.95 1.00
            6    235      23.89 0.034      91.46    0.010     92.00        0.151 0.95 1.00
            6    236      96.35 0.240      15.24    0.010     92.00        0.047 0.95 1.00
            6    237      61.21 0.004     121.95    0.010     92.00        0.341 0.95 1.00
            6    238     783.06 0.001     121.95    0.010     92.00        0.620 0.95 1.00
            6    239      81.39 0.033      91.46    0.010     92.00        0.164 0.95 1.00
            6    240     176.46 0.165      18.29    0.010     92.00        0.068 0.95 1.00
            6    241     226.33 0.036      91.46    0.100     97.48        0.610 0.95 1.00
            6    242    1165.27 0.136      24.39    0.100     97.48        0.346 0.95 1.00
            6    243      64.27 0.013     121.95    0.100     97.48        0.931 0.95 1.00
            6    244     289.28 0.036      91.46    0.100     97.22        0.620 0.95 1.00
            6    245    1510.23 0.129      24.39    0.100     97.22        0.393 0.95 1.00
            6    246      73.86 0.012     121.95    0.100     97.22        0.955 0.95 1.00
            6    247    1157.34 0.230      15.24    0.100     97.48        0.284 0.95 1.00
            6    248      52.81 0.012     121.95    0.100     97.48        0.951 0.95 1.00
            6    249     147.62 0.037      91.46    0.100     97.48        0.593 0.95 1.00
            6    250    1518.72 0.129      24.39    0.100     97.22        0.394 0.95 1.00
            6    251      85.77 0.012     121.95    0.100     97.22        0.957 0.95 1.00
            6    252     309.56 0.036      91.46    0.100     97.22        0.623 0.95 1.00
            6    253     453.10 0.036      91.46    0.100     97.22        0.645 0.95 1.00
            6    254     130.75 0.012     121.95    0.100     97.22        0.965 0.95 1.00
            6    255    2431.09 0.131      24.39    0.100     97.22        0.505 0.95 1.00
            6    256     346.95 0.124      24.39    0.100     74.86        0.238 0.95 1.00
            6    257      93.12 0.035      91.46    0.100     74.86        0.593 0.95 1.00
            6    258      34.55 0.012     121.95    0.100     74.86        0.948 0.95 1.00
            6    259     455.85 0.112      60.98    0.100     63.29        0.394 0.95 1.00
            6    260      26.20 0.012     121.95    0.100     63.29        0.946 0.95 1.00
            6    261     115.88 0.036      91.46    0.100     63.29        0.592 0.95 1.00
            6    262     286.32 0.036      91.46    0.100     63.29        0.620 0.95 1.00
            6    263     917.98 0.112      60.98    0.100     63.29        0.458 0.95 1.00
            6    264      83.73 0.013     121.95    0.100     63.29        0.935 0.95 1.00
            6    265     293.76 0.036      91.46    0.100     63.29        0.621 0.95 1.00
            6    266      89.11 0.012     121.95    0.100     63.29        0.958 0.95 1.00
            6    267     962.26 0.115      60.98    0.100     63.29        0.462 0.95 1.00
            6    268     135.60 0.013     121.95    0.150     79.00        1.197 0.95 1.00
            6    269     605.33 0.037      91.46    0.150     79.00        0.817 0.95 1.00
            6    270    3731.42 0.131      24.39    0.150     79.00        0.703 0.95 1.00
            6    271     114.55 0.011     121.95    0.150     79.00        1.253 0.95 1.00
            6    272     299.67 0.036      91.46    0.150     79.00        0.778 0.95 1.00
            6    273    1569.14 0.124      24.39    0.150     79.00        0.452 0.95 1.00
            6    274    4371.63 0.125      24.39    0.150     69.00        0.778 0.95 1.00
            6    275     192.76 0.013     121.95    0.150     69.00        1.206 0.95 1.00
            6    276     773.04 0.036      91.46    0.150     69.00        0.847 0.95 1.00
            6    277    1813.30 0.181      18.29    0.150     79.00        0.426 0.95 1.00
            6    278     282.17 0.036      91.46    0.150     79.00        0.776 0.95 1.00
            6    279     105.02 0.011     121.95    0.150     79.00        1.251 0.95 1.00
            7    280    3173.23 0.012     121.95    0.100     66.00        1.500 0.95 1.00
            7    281    8960.19 0.036      91.46    0.100     66.00        1.959 0.95 1.00
            7    282   31407.43 0.106      60.98    0.100     66.00        4.488 0.95 1.00
            7    283    1749.68 0.036      91.46    0.100     77.00        0.902 0.95 1.00
            7    284   13495.43 0.137      24.39    0.100     77.00        2.161 0.95 1.00
            7    285     536.13 0.012     121.95    0.100     77.00        1.058 0.95 1.00
            7    286     637.29 0.012     121.95    0.100     66.00        1.077 0.95 1.00
            7    287   16485.60 0.146      24.39    0.100     66.00        2.539 0.95 1.00
            7    288    2000.53 0.035      91.46    0.100     66.00        0.948 0.95 1.00
            7    289   20740.86 0.001     121.95    0.010     92.00        3.395 0.95 1.00
            7    290    1035.47 0.136      24.39    0.010     92.00        0.254 0.95 1.00
            7    291     433.17 0.033      91.46    0.010     92.00        0.245 0.95 1.00
            7    292    4011.13 0.001     121.95    0.010     92.00        1.186 0.95 1.00
            7    293     111.20 0.034      91.46    0.010     92.00        0.175 0.95 1.00
            7    294     170.87 0.140      24.39    0.010     92.00        0.086 0.95 1.00
            7    295     443.45 0.011     121.95    0.100     97.22        1.065 0.95 1.00
            7    296     328.28 0.032      91.46    0.100     97.22        0.666 0.95 1.00
            7    297     166.93 0.081      60.98    0.100     97.22        0.392 0.95 1.00
            7    298     405.13 0.012     121.95    0.100     97.22        1.032 0.95 1.00
            7    299     831.85 0.035      91.46    0.100     97.22        0.747 0.95 1.00
            7    300    1204.21 0.087      60.98    0.100     97.22        0.582 0.95 1.00
            7    301     885.82 0.012     121.95    0.150     69.00        1.382 0.95 1.00
            7    302     671.47 0.083      60.98    0.150     69.00        0.587 0.95 1.00
            7    303    1016.69 0.033      91.46    0.150     69.00        0.952 0.95 1.00
            7    304    5128.85 0.090      60.98    0.150     69.00        1.285 0.95 1.00
            7    305    1422.45 0.012     121.95    0.150     69.00        1.476 0.95 1.00
            7    306    3227.26 0.035      91.46    0.150     69.00        1.300 0.95 1.00
            7    307     168.98 0.105      60.98    0.050     66.00        0.256 0.95 1.00
            7    308    1483.59 0.006     121.95    0.050     66.00        1.052 0.95 1.00
            7    309     191.47 0.032      91.46    0.050     66.00        0.437 0.95 1.00
            7    310     328.32 0.010     121.95    0.050     66.00        0.732 0.95 1.00
            7    311     282.90 0.034      91.46    0.050     66.00        0.449 0.95 1.00
            7    312     516.73 0.097      60.98    0.050     66.00        0.333 0.95 1.00
            7    313     124.88 0.034      91.46    0.050     77.00        0.415 0.95 1.00
            7    314     346.57 0.134      24.39    0.050     77.00        0.195 0.95 1.00
            7    315     115.23 0.009     121.95    0.050     77.00        0.707 0.95 1.00
            7    316     105.89 0.011     121.95    0.050     66.00        0.665 0.95 1.00
            7    317     321.90 0.132      24.39    0.050     66.00        0.191 0.95 1.00
            7    318     141.67 0.034      91.46    0.050     66.00        0.419 0.95 1.00
            8    319    1014.56 0.233      15.24    0.300     59.00        0.271 0.95 1.00
            8    320      76.13 0.035      91.46    0.300     59.00        1.115 0.95 1.00
            8    321      35.68 0.012     121.95    0.300     59.00        1.820 0.95 1.00
            8    322     896.10 0.155      24.39    0.300     72.00        0.372 0.95 1.00
            8    323     326.06 0.012     121.95    0.300     72.00        1.838 0.95 1.00
            8    324     417.35 0.033      91.46    0.300     72.00        1.154 0.95 1.00
            8    325    2116.67 0.169      18.29    0.300     79.00        0.370 0.95 1.00
            8    326      35.11 0.013     121.95    0.300     79.00        1.777 0.95 1.00
            8    327     212.07 0.037      91.46    0.300     79.00        1.105 0.95 1.00
            8    328    1820.08 0.155      24.39    0.300     59.00        0.415 0.95 1.00
            8    329     323.74 0.036      91.46    0.300     59.00        1.120 0.95 1.00
            8    330      92.89 0.013     121.95    0.300     59.00        1.781 0.95 1.00
            8    331     550.21 0.036      91.46    0.100     66.00        0.602 0.95 1.00
            8    332   40627.57 0.320       9.15    0.100     66.00        1.496 0.95 1.00
            8    333     171.92 0.013     121.95    0.100     66.00        0.929 0.95 1.00
            8    334     182.94 0.037      91.46    0.100     77.00        0.577 0.95 1.00
            8    335      66.28 0.011     121.95    0.100     77.00        0.970 0.95 1.00
            8    336   30429.26 0.402       9.15    0.100     77.00        1.174 0.95 1.00
            8    337      47.46 0.012     121.95    0.100     66.00        0.944 0.95 1.00
            8    338     222.45 0.037      91.46    0.100     66.00        0.579 0.95 1.00
            8    339   25939.42 0.358       9.15    0.100     66.00        1.032 0.95 1.00
            8    340    1587.02 0.243      15.24    0.100     97.22        0.193 0.95 1.00
            8    341      47.58 0.037      91.46    0.100     97.22        0.568 0.95 1.00
            8    342      10.37 0.014     121.95    0.100     97.22        0.898 0.95 1.00
            8    343    4496.47 0.245      15.24    0.100     97.22        0.316 0.95 1.00
            8    344     144.24 0.013     121.95    0.100     97.22        0.928 0.95 1.00
            8    345     312.18 0.034      91.46    0.100     97.22        0.599 0.95 1.00
            8    346    1808.47 0.254       9.15    0.100     97.62        0.173 0.95 1.00
            8    347     125.35 0.036      91.46    0.100     97.62        0.578 0.95 1.00
            8    348      30.36 0.012     121.95    0.100     97.62        0.942 0.95 1.00
            8    349    1761.64 0.239      15.24    0.150     69.00        0.232 0.95 1.00
            8    350     136.21 0.035      91.46    0.150     69.00        0.741 0.95 1.00
            8    351     108.44 0.010     121.95    0.150     69.00        1.274 0.95 1.00
            8    352      39.08 0.036      91.46    0.150     69.00        0.729 0.95 1.00
            8    353       9.87 0.014     121.95    0.150     69.00        1.145 0.95 1.00
            8    354    1124.68 0.231      15.24    0.150     69.00        0.203 0.95 1.00
            8    355    3895.96 0.233      15.24    0.150     69.00        0.324 0.95 1.00
            8    356     101.85 0.013     121.95    0.150     69.00        1.178 0.95 1.00
            8    357     223.33 0.035      91.46    0.150     69.00        0.747 0.95 1.00
            9    358    4599.76 0.127      24.39    0.300     59.00        0.631 0.95 1.00
            9    359     845.01 0.036      91.46    0.300     59.00        1.165 0.95 1.00
            9    360     195.08 0.013     121.95    0.300     59.00        1.792 0.95 1.00
            9    361      17.34 0.015     121.95    0.300     59.00        1.701 0.95 1.00
            9    362     137.16 0.038      91.46    0.300     59.00        1.095 0.95 1.00
            9    363    1209.16 0.140      24.39    0.300     59.00        0.421 0.95 1.00
            9    364   10211.85 0.203      15.24    0.100     66.00        0.699 0.95 1.00
            9    365     143.84 0.012     121.95    0.100     66.00        0.954 0.95 1.00
            9    366     605.83 0.037      91.46    0.100     66.00        0.613 0.95 1.00
            9    367      29.45 0.013     121.95    0.100     77.00        0.921 0.95 1.00
            9    368   28251.68 0.408       9.15    0.100     77.00        1.489 0.95 1.00
            9    369     158.06 0.037      91.46    0.100     77.00        0.579 0.95 1.00
            9    370      80.49 0.013     121.95    0.100     66.00        0.926 0.95 1.00
            9    371     362.97 0.037      91.46    0.100     66.00        0.596 0.95 1.00
            9    372   29335.63 0.327       9.15    0.100     66.00        1.542 0.95 1.00
            9    373     394.04 0.013     121.95    0.100     97.22        0.951 0.95 1.00
            9    374    8177.83 0.132      24.39    0.100     97.22        0.654 0.95 1.00
            9    375    1637.87 0.036      91.46    0.100     97.22        0.686 0.95 1.00
            9    376     111.43 0.036      91.46    0.100     97.22        0.580 0.95 1.00
            9    377      26.75 0.012     121.95    0.100     97.22        0.943 0.95 1.00
            9    378    1669.65 0.240      15.24    0.100     97.22        0.229 0.95 1.00
            9    379    3596.81 0.113      60.98    0.100     63.29        0.550 0.95 1.00
            9    380    1230.99 0.036      91.46    0.100     63.29        0.660 0.95 1.00
            9    381     325.98 0.013     121.95    0.100     63.29        0.946 0.95 1.00
            9    382    9235.02 0.136      24.39    0.150     69.00        0.754 0.95 1.00
            9    383     320.62 0.013     121.95    0.150     69.00        1.198 0.95 1.00
            9    384    1358.02 0.037      91.46    0.150     69.00        0.819 0.95 1.00
           10    385    7948.72 0.186      18.29    0.300     59.00        1.556 0.95 1.00
           10    386     483.40 0.037      91.46    0.300     59.00        1.203 0.95 1.00
           10    387     129.74 0.011     121.95    0.300     59.00        1.900 0.95 1.00
           10    388    1130.69 0.036      91.46    0.300     72.00        1.336 0.95 1.00
           10    389    6273.96 0.150      24.39    0.300     72.00        1.381 0.95 1.00
           10    390     303.56 0.013     121.95    0.300     72.00        1.848 0.95 1.00
           10    391    1913.84 0.036      91.46    0.300     59.00        1.474 0.95 1.00
           10    392   16433.13 0.161      18.29    0.300     59.00        2.722 0.95 1.00
           10    393     676.98 0.012     121.95    0.300     59.00        1.967 0.95 1.00
           10    394      78.77 0.036      91.46    0.100     73.00        0.592 0.95 1.00
           10    395     923.82 0.198      18.29    0.100     73.00        0.328 0.95 1.00
           10    396      17.64 0.012     121.95    0.100     73.00        0.946 0.95 1.00
           10    397    1348.60 0.193      18.29    0.100     73.00        0.406 0.95 1.00
           10    398      63.62 0.013     121.95    0.100     73.00        0.937 0.95 1.00
           10    399     196.05 0.036      91.46    0.100     73.00        0.620 0.95 1.00
           10    400      40.63 0.013     121.95    0.100     60.00        0.930 0.95 1.00
           10    401    1196.29 0.190      18.29    0.100     60.00        0.379 0.95 1.00
           10    402     155.16 0.036      91.46    0.100     60.00        0.610 0.95 1.00
           10    403    1463.79 0.330       9.15    0.100     73.00        0.369 0.95 1.00
           10    404       7.44 0.013     121.95    0.100     73.00        0.920 0.95 1.00
           10    405      25.74 0.036      91.46    0.100     73.00        0.577 0.95 1.00
           10    406     796.84 0.037      91.46    0.100     66.00        0.738 0.95 1.00
           10    407   43432.70 0.289       9.15    0.100     66.00        5.822 0.95 1.00
           10    408     322.18 0.008     121.95    0.100     66.00        1.140 0.95 1.00
           10    409   21595.29 0.244      15.24    0.100     66.00        3.227 0.95 1.00
           10    410     765.82 0.036      91.46    0.100     66.00        0.737 0.95 1.00
           10    411     211.82 0.013     121.95    0.100     66.00        0.972 0.95 1.00
           10    412   79074.02 0.362       9.15    0.100     77.00        9.777 0.95 1.00
           10    413     248.79 0.012     121.95    0.100     77.00        1.003 0.95 1.00
           10    414     946.89 0.037      91.46    0.100     77.00        0.766 0.95 1.00
           10    415     295.65 0.037      91.46    0.100     97.22        0.637 0.95 1.00
           10    416      93.14 0.011     121.95    0.100     97.22        0.991 0.95 1.00
           10    417    6305.52 0.221      15.24    0.100     97.22        1.174 0.95 1.00
           10    418     486.65 0.036      91.46    0.100     97.22        0.682 0.95 1.00
           10    419     189.77 0.012     121.95    0.100     97.22        0.989 0.95 1.00
           10    420    4102.85 0.207      15.24    0.100     97.22        0.844 0.95 1.00
           10    421    4189.49 0.291       9.15    0.100     97.48        0.819 0.95 1.00
           10    422      62.95 0.013     121.95    0.100     97.48        0.936 0.95 1.00
           10    423     197.06 0.036      91.46    0.100     97.48        0.620 0.95 1.00
           10    424      89.06 0.037      91.46    0.100     63.29        0.590 0.95 1.00
           10    425     958.26 0.178      18.29    0.100     63.29        0.338 0.95 1.00
           10    426      21.49 0.013     121.95    0.100     63.29        0.925 0.95 1.00
           10    427     532.65 0.128      24.39    0.100     74.86        0.298 0.95 1.00
           10    428     180.26 0.035      91.46    0.100     74.86        0.621 0.95 1.00
           10    429     109.40 0.011     121.95    0.100     74.86        0.995 0.95 1.00
           10    430     357.70 0.106      60.98    0.100     74.86        0.409 0.95 1.00
           10    431     186.99 0.034      91.46    0.100     74.86        0.627 0.95 1.00
           10    432      95.57 0.012     121.95    0.100     74.86        0.967 0.95 1.00
           10    433     340.45 0.035      91.46    0.100     63.29        0.656 0.95 1.00
           10    434    1308.39 0.160      24.39    0.100     63.29        0.433 0.95 1.00
           10    435     154.52 0.011     121.95    0.100     63.29        1.006 0.95 1.00
           10    436     100.88 0.036      91.46    0.100     74.86        0.597 0.95 1.00
           10    437     881.48 0.232      15.24    0.100     74.86        0.301 0.95 1.00
           10    438      29.77 0.013     121.95    0.100     74.86        0.927 0.95 1.00
           10    439     209.17 0.011     121.95    0.150     69.00        1.284 0.95 1.00
           10    440   16719.45 0.208      15.24    0.150     69.00        2.638 0.95 1.00
           10    441     740.00 0.037      91.46    0.150     69.00        0.882 0.95 1.00
           10    442    9558.46 0.184      18.29    0.150     69.00        1.697 0.95 1.00
           10    443     890.35 0.036      91.46    0.150     69.00        0.917 0.95 1.00
           10    444     290.13 0.012     121.95    0.150     69.00        1.270 0.95 1.00
           10    445      70.37 0.011     121.95    0.150     79.00        1.251 0.95 1.00
           10    446     261.19 0.036      91.46    0.150     79.00        0.791 0.95 1.00
           10    447    7418.92 0.288       9.15    0.150     79.00        1.322 0.95 1.00
           11    448     341.60 0.012     121.95    0.300     59.00        1.869 0.95 1.00
           11    449    1336.47 0.037      91.46    0.300     59.00        1.263 0.95 1.00
           11    450    8888.65 0.126      24.39    0.300     59.00        1.248 0.95 1.00
           11    451    2891.59 0.036      91.46    0.300     59.00        1.439 0.95 1.00
           11    452     787.27 0.012     121.95    0.300     59.00        1.925 0.95 1.00
           11    453   13801.47 0.128      24.39    0.300     59.00        1.671 0.95 1.00
           11    454    2087.53 0.035      91.46    0.300     72.00        1.364 0.95 1.00
           11    455    1008.16 0.011     121.95    0.300     72.00        2.000 0.95 1.00
           11    456    6615.20 0.139      24.39    0.300     72.00        1.031 0.95 1.00
           11    457   55712.09 0.341       9.15    0.100     66.00        4.587 0.95 1.00
           11    458     199.11 0.012     121.95    0.100     66.00        0.972 0.95 1.00
           11    459     744.21 0.037      91.46    0.100     66.00        0.668 0.95 1.00
           11    460     979.99 0.036      91.46    0.100     77.00        0.700 0.95 1.00
           11    461     354.12 0.012     121.95    0.100     77.00        0.994 0.95 1.00
           11    462   26465.84 0.296       9.15    0.100     77.00        2.429 0.95 1.00
           11    463    9248.62 0.001     121.95    0.010     92.00        1.435 0.95 1.00
           11    464     901.97 0.185      18.29    0.010     92.00        0.156 0.95 1.00
           11    465     588.55 0.032      91.46    0.010     92.00        0.232 0.95 1.00
           11    466    1038.50 0.036      91.46    0.100     97.22        0.707 0.95 1.00
           11    467    4901.21 0.123      24.39    0.100     97.22        0.716 0.95 1.00
           11    468     317.84 0.012     121.95    0.100     97.22        0.989 0.95 1.00
           11    469     223.95 0.012     121.95    0.100     97.22        0.976 0.95 1.00
           11    470    3821.53 0.131      24.39    0.100     97.22        0.608 0.95 1.00
           11    471     807.25 0.036      91.46    0.100     97.22        0.680 0.95 1.00
           11    472     102.04 0.011     121.95    0.100     97.22        0.983 0.95 1.00
           11    473     228.99 0.034      91.46    0.100     97.22        0.615 0.95 1.00
           11    474    2590.16 0.293       9.15    0.100     97.22        0.384 0.95 1.00
           11    475     479.46 0.035      91.46    0.100     97.48        0.644 0.95 1.00
           11    476    1966.33 0.177      18.29    0.100     97.48        0.376 0.95 1.00
           11    477     230.93 0.012     121.95    0.100     97.48        0.977 0.95 1.00
           11    478     194.15 0.012     121.95    0.100     63.29        0.972 0.95 1.00
           11    479    1893.09 0.112      60.98    0.100     63.29        0.551 0.95 1.00
           11    480     585.78 0.035      91.46    0.100     63.29        0.657 0.95 1.00
           11    481     181.29 0.012     121.95    0.100     63.29        0.970 0.95 1.00
           11    482     485.13 0.035      91.46    0.100     63.29        0.645 0.95 1.00
           11    483     672.35 0.086      60.98    0.100     63.29        0.438 0.95 1.00
           11    484     974.98 0.122      24.39    0.100     63.29        0.309 0.95 1.00
           11    485     225.10 0.036      91.46    0.100     63.29        0.605 0.95 1.00
           11    486      62.75 0.011     121.95    0.100     63.29        0.977 0.95 1.00
           11    487     604.73 0.036      91.46    0.150     69.00        0.812 0.95 1.00
           11    488    4806.95 0.139      24.39    0.150     69.00        0.748 0.95 1.00
           11    489     289.38 0.009     121.95    0.150     69.00        1.352 0.95 1.00
           11    490     535.48 0.036      91.46    0.150     69.00        0.803 0.95 1.00
           11    491     195.99 0.011     121.95    0.150     69.00        1.263 0.95 1.00
           11    492    2864.94 0.152      24.39    0.150     69.00        0.549 0.95 1.00
           11    493    2312.34 0.231      15.24    0.150     69.00        0.421 0.95 1.00
           11    494     102.58 0.010     121.95    0.150     69.00        1.284 0.95 1.00
           11    495     200.31 0.035      91.46    0.150     69.00        0.764 0.95 1.00
           11    496     267.21 0.035      91.46    0.150     79.00        0.774 0.95 1.00
           11    497     119.36 0.012     121.95    0.150     79.00        1.219 0.95 1.00
           11    498    2238.05 0.187      18.29    0.150     79.00        0.440 0.95 1.00
           12    499   10685.51 0.174      18.29    0.300     59.00        1.530 0.95 1.00
           12    500     845.10 0.036      91.46    0.300     59.00        1.237 0.95 1.00
           12    501     224.08 0.012     121.95    0.300     59.00        1.860 0.95 1.00
           12    502    3835.31 0.036      91.46    0.300     59.00        1.617 0.95 1.00
           12    503   54837.10 0.197      18.29    0.300     59.00        5.562 0.95 1.00
           12    504    1305.26 0.012     121.95    0.300     59.00        2.018 0.95 1.00
           12    505   13795.08 0.220      15.24    0.300     59.00        1.805 0.95 1.00
           12    506     824.30 0.036      91.46    0.300     59.00        1.234 0.95 1.00
           12    507     345.37 0.011     121.95    0.300     59.00        1.928 0.95 1.00
           12    508   61906.49 0.246      15.24    0.100     66.00        6.014 0.95 1.00
           12    509    1620.22 0.037      91.46    0.100     66.00        0.808 0.95 1.00
           12    510     599.76 0.009     121.95    0.100     66.00        1.127 0.95 1.00
           12    511    2197.25 0.036      91.46    0.100     66.00        0.887 0.95 1.00
           12    512  105873.59 0.316       9.15    0.100     66.00        9.518 0.95 1.00
           12    513     798.72 0.012     121.95    0.100     66.00        1.071 0.95 1.00
           12    514    2112.21 0.037      91.46    0.100     77.00        0.871 0.95 1.00
           12    515  160496.92 0.348       9.15    0.100     77.00       13.663 0.95 1.00
           12    516     591.01 0.012     121.95    0.100     77.00        1.041 0.95 1.00
           12    517     142.71 0.034      91.46    0.010     92.00        0.174 0.95 1.00
           12    518     805.94 0.002     121.95    0.010     92.00        0.536 0.95 1.00
           12    519    1102.59 0.277       9.15    0.010     92.00        0.193 0.95 1.00
           12    520    1873.39 0.226      15.24    0.010     92.00        0.305 0.95 1.00
           12    521     454.51 0.033      91.46    0.010     92.00        0.227 0.95 1.00
           12    522    6444.81 0.001     121.95    0.010     92.00        1.313 0.95 1.00
           12    523    9588.41 0.197      18.29    0.100     97.22        1.285 0.95 1.00
           12    524     193.67 0.011     121.95    0.100     97.22        1.003 0.95 1.00
           12    525     635.06 0.036      91.46    0.100     97.22        0.676 0.95 1.00
           12    526    1228.16 0.036      91.46    0.100     97.22        0.760 0.95 1.00
           12    527     387.23 0.012     121.95    0.100     97.22        1.009 0.95 1.00
           12    528   12551.77 0.209      15.24    0.100     97.22        1.576 0.95 1.00
           12    529     131.06 0.012     121.95    0.100     97.48        0.967 0.95 1.00
           12    530    9335.34 0.316       9.15    0.100     97.48        1.202 0.95 1.00
           12    531     423.34 0.036      91.46    0.100     97.48        0.644 0.95 1.00
           12    532     296.30 0.011     121.95    0.150     69.00        1.285 0.95 1.00
           12    533   18435.42 0.194      18.29    0.150     69.00        2.213 0.95 1.00
           12    534    1000.37 0.037      91.46    0.150     69.00        0.879 0.95 1.00
           12    535    8355.01 0.208      15.24    0.150     79.00        1.170 0.95 1.00
           12    536     198.55 0.011     121.95    0.150     79.00        1.269 0.95 1.00
           12    537     605.15 0.036      91.46    0.150     79.00        0.828 0.95 1.00
           12    538     289.63 0.012     121.95    0.150     69.00        1.253 0.95 1.00
           12    539     737.79 0.036      91.46    0.150     69.00        0.848 0.95 1.00
           12    540   10454.82 0.223      15.24    0.150     69.00        1.389 0.95 1.00
           13    541    7248.59 0.036      91.46    0.300     59.00        1.683 0.95 1.00
           13    542    2445.37 0.012     121.95    0.300     59.00        2.042 0.95 1.00
           13    543   30305.11 0.113      60.98    0.300     59.00        2.652 0.95 1.00
           13    544    5211.38 0.011     121.95    0.300     72.00        2.302 0.95 1.00
           13    545   27167.22 0.129      24.39    0.300     72.00        2.194 0.95 1.00
           13    546    8903.22 0.035      91.46    0.300     72.00        1.808 0.95 1.00
           13    547  100977.12 0.383       9.15    0.100     66.00        5.920 0.95 1.00
           13    548     821.84 0.035      91.46    0.100     66.00        0.660 0.95 1.00
           13    549     321.28 0.013     121.95    0.100     66.00        0.956 0.95 1.00
           13    550     135.39 0.012     121.95    0.100     66.00        0.958 0.95 1.00
           13    551     575.96 0.037      91.46    0.100     66.00        0.628 0.95 1.00
           13    552   83712.27 0.387       9.15    0.100     66.00        5.034 0.95 1.00
           13    553   91067.09 0.455       9.15    0.100     77.00        5.411 0.95 1.00
           13    554     104.52 0.011     121.95    0.100     77.00        0.979 0.95 1.00
           13    555     390.52 0.037      91.46    0.100     77.00        0.609 0.95 1.00
           13    556   17094.36 0.117      60.98    0.100     97.22        1.550 0.95 1.00
           13    557    4122.83 0.036      91.46    0.100     97.22        0.925 0.95 1.00
           13    558    1187.38 0.013     121.95    0.100     97.22        1.037 0.95 1.00
           13    559    8929.34 0.148      24.39    0.100     97.48        0.869 0.95 1.00
           13    560    2827.69 0.035      91.46    0.100     97.48        0.830 0.95 1.00
           13    561    1252.66 0.012     121.95    0.100     97.48        1.065 0.95 1.00
           13    562    8018.74 0.036      91.46    0.150     69.00        1.363 0.95 1.00
           13    563    2096.74 0.013     121.95    0.150     69.00        1.367 0.95 1.00
           13    564   39131.15 0.121      24.39    0.150     69.00        2.780 0.95 1.00
           13    565     747.77 0.011     121.95    0.150     79.00        1.310 0.95 1.00
           13    566    1806.51 0.036      91.46    0.150     79.00        0.898 0.95 1.00
           13    567   11189.73 0.160      18.29    0.150     79.00        1.030 0.95 1.00
           14    568    1042.64 0.012     121.95    0.140     78.00        1.231 0.95 1.00
           14    569    1474.35 0.033      91.46    0.140     78.00        0.825 0.95 1.00
           14    570     904.21 0.078      60.98    0.140     78.00        0.505 0.95 1.00
           14    571     520.84 0.031      91.46    0.140     89.00        0.772 0.95 1.00
           14    572     203.67 0.076      60.98    0.140     89.00        0.456 0.95 1.00
           14    573    1676.26 0.008     121.95    0.140     89.00        1.422 0.95 1.00
           14    574    1430.22 0.033      91.46    0.140     85.00        0.822 0.95 1.00
           14    575     668.53 0.071      60.98    0.140     85.00        0.500 0.95 1.00
           14    576    1251.13 0.011     121.95    0.140     85.00        1.276 0.95 1.00
           14    577     546.21 0.012     121.95    0.300     72.00        1.863 0.95 1.00
           14    578    1114.70 0.034      91.46    0.300     72.00        1.205 0.95 1.00
           14    579     981.33 0.079      60.98    0.300     72.00        0.758 0.95 1.00
           14    580    2056.40 0.126      24.39    0.300     59.00        0.489 0.95 1.00
           14    581     767.88 0.012     121.95    0.300     59.00        1.879 0.95 1.00
           14    582    1169.33 0.033      91.46    0.300     59.00        1.219 0.95 1.00
           14    583     238.02 0.013     121.95    0.300     72.00        1.796 0.95 1.00
           14    584     521.94 0.034      91.46    0.300     72.00        1.163 0.95 1.00
           14    585     604.15 0.089      60.98    0.300     72.00        0.708 0.95 1.00
           14    586   45884.09 0.102      60.98    0.100     66.00        2.559 0.95 1.00
           14    587    5872.99 0.012     121.95    0.100     66.00        1.309 0.95 1.00
           14    588   14500.76 0.036      91.46    0.100     66.00        1.384 0.95 1.00
           14    589   28120.76 0.096      60.98    0.100     77.00        1.787 0.95 1.00
           14    590    3430.74 0.012     121.95    0.100     77.00        1.171 0.95 1.00
           14    591   11230.04 0.036      91.46    0.100     77.00        1.220 0.95 1.00
           14    592   99230.02 0.173      18.29    0.100     66.00        4.521 0.95 1.00
           14    593    8989.18 0.036      91.46    0.100     66.00        1.105 0.95 1.00
           14    594    2750.54 0.013     121.95    0.100     66.00        1.108 0.95 1.00
           14    595   25410.53 0.001     121.95    0.010     92.00        1.829 0.95 1.00
           14    596     382.13 0.136      24.39    0.010     92.00        0.077 0.95 1.00
           14    597     281.92 0.033      91.46    0.010     92.00        0.173 0.95 1.00
           14    598     768.50 0.012     121.95    0.100     97.22        1.002 0.95 1.00
           14    599    1700.57 0.035      91.46    0.100     97.22        0.699 0.95 1.00
           14    600    2518.23 0.087      60.98    0.100     97.22        0.518 0.95 1.00
           14    601    3513.30 0.085      60.98    0.100     97.48        0.580 0.95 1.00
           14    602     974.03 0.012     121.95    0.100     97.48        1.017 0.95 1.00
           14    603    2679.86 0.035      91.46    0.100     97.48        0.760 0.95 1.00
           14    604     404.68 0.013     121.95    0.100     97.22        0.953 0.95 1.00
           14    605     909.27 0.034      91.46    0.100     97.22        0.651 0.95 1.00
           14    606    1980.14 0.125      24.39    0.100     97.22        0.320 0.95 1.00
           14    607     271.59 0.013     121.95    0.100     55.00        0.943 0.95 1.00
           14    608    4799.78 0.101      60.98    0.100     55.00        0.637 0.95 1.00
           14    609    1124.71 0.036      91.46    0.100     55.00        0.656 0.95 1.00
           14    610    1557.87 0.144      24.39    0.100     55.00        0.286 0.95 1.00
           14    611      64.17 0.013     121.95    0.100     55.00        0.925 0.95 1.00
           14    612     210.17 0.036      91.46    0.100     55.00        0.589 0.95 1.00
           14    613      58.35 0.012     121.95    0.100     55.00        0.946 0.95 1.00
           14    614    2450.17 0.164      18.29    0.100     55.00        0.309 0.95 1.00
           14    615     213.51 0.036      91.46    0.100     55.00        0.589 0.95 1.00
           14    616    2751.30 0.012     121.95    0.150     69.00        1.389 0.95 1.00
           14    617    6053.63 0.035      91.46    0.150     69.00        1.111 0.95 1.00
           14    618    7694.60 0.085      60.98    0.150     69.00        0.908 0.95 1.00
           14    619    2505.84 0.012     121.95    0.150     79.00        1.374 0.95 1.00
           14    620    7372.06 0.082      60.98    0.150     79.00        0.895 0.95 1.00
           14    621    6531.50 0.035      91.46    0.150     79.00        1.137 0.95 1.00
           14    622    5763.24 0.143      24.39    0.150     69.00        0.581 0.95 1.00
           14    623     792.40 0.012     121.95    0.150     69.00        1.263 0.95 1.00
           14    624    1525.96 0.034      91.46    0.150     69.00        0.852 0.95 1.00
           14    625      74.74 0.081      60.98    0.050     66.00        0.239 0.95 1.00
           14    626     305.02 0.029      91.46    0.050     66.00        0.428 0.95 1.00
           14    627    2084.84 0.007     121.95    0.050     66.00        0.878 0.95 1.00
           14    628    1215.60 0.031      91.46    0.050     83.00        0.486 0.95 1.00
           14    629     537.29 0.091      60.98    0.050     83.00        0.268 0.95 1.00
           14    630    7405.77 0.007     121.95    0.050     83.00        1.182 0.95 1.00
           14    631    1380.47 0.008     121.95    0.050     77.00        0.804 0.95 1.00
           14    632     602.53 0.107      60.98    0.050     77.00        0.263 0.95 1.00
           14    633     556.02 0.032      91.46    0.050     77.00        0.436 0.95 1.00
           15    634     300.27 0.013     121.95    0.300     72.00        1.855 0.95 1.00
           15    635     942.78 0.105      60.98    0.300     72.00        0.846 0.95 1.00
           15    636     574.79 0.034      91.46    0.300     72.00        1.262 0.95 1.00
           15    637     251.71 0.036      91.46    0.300     59.00        1.169 0.95 1.00
           15    638     811.69 0.107      60.98    0.300     59.00        0.816 0.95 1.00
           15    639      64.31 0.012     121.95    0.300     59.00        1.838 0.95 1.00
           15    640     289.93 0.012     121.95    0.300     59.00        1.896 0.95 1.00
           15    641    2733.47 0.106      60.98    0.300     59.00        1.185 0.95 1.00
           15    642     868.48 0.036      91.46    0.300     59.00        1.305 0.95 1.00
           15    643    1578.00 0.153      24.39    0.300     72.00        0.669 0.95 1.00
           15    644     192.10 0.012     121.95    0.300     72.00        1.872 0.95 1.00
           15    645     393.50 0.035      91.46    0.300     72.00        1.212 0.95 1.00
           15    646     106.52 0.177      18.29    0.140     91.00        0.197 0.95 1.00
           15    647      41.00 0.032      91.46    0.140     91.00        0.735 0.95 1.00
           15    648     146.58 0.004     121.95    0.140     91.00        1.642 0.95 1.00
           15    649     172.62 0.034      91.46    0.140     94.00        0.758 0.95 1.00
           15    650     355.96 0.151      24.39    0.140     94.00        0.299 0.95 1.00
           15    651    1546.15 0.002     121.95    0.140     94.00        2.309 0.95 1.00
           15    652    3369.21 0.216      15.24    0.100     83.00        0.787 0.95 1.00
           15    653      71.73 0.011     121.95    0.100     83.00        0.988 0.95 1.00
           15    654     217.66 0.036      91.46    0.100     83.00        0.630 0.95 1.00
           15    655     133.03 0.012     121.95    0.100     66.00        0.980 0.95 1.00
           15    656    4613.14 0.140      24.39    0.100     66.00        1.058 0.95 1.00
           15    657     566.01 0.037      91.46    0.100     66.00        0.706 0.95 1.00
           15    658   14976.26 0.258       9.15    0.100     77.00        2.565 0.95 1.00
           15    659     349.23 0.010     121.95    0.100     77.00        1.085 0.95 1.00
           15    660     735.85 0.036      91.46    0.100     77.00        0.747 0.95 1.00
           15    661     601.47 0.178      18.29    0.010     92.00        0.183 0.95 1.00
           15    662     234.20 0.033      91.46    0.010     92.00        0.212 0.95 1.00
           15    663    7857.02 0.001     121.95    0.010     92.00        1.911 0.95 1.00
           15    664     363.95 0.106      60.98    0.100     97.48        0.419 0.95 1.00
           15    665     245.23 0.034      91.46    0.100     97.48        0.647 0.95 1.00
           15    666     180.17 0.012     121.95    0.100     97.48        0.992 0.95 1.00
           15    667     121.27 0.012     121.95    0.100     97.22        0.977 0.95 1.00
           15    668     350.80 0.036      91.46    0.100     97.22        0.662 0.95 1.00
           15    669    1337.36 0.117      60.98    0.100     97.22        0.613 0.95 1.00
           15    670     118.19 0.011     121.95    0.100     97.48        1.001 0.95 1.00
           15    671    1331.59 0.202      15.24    0.100     97.48        0.415 0.95 1.00
           15    672     221.48 0.035      91.46    0.100     97.48        0.636 0.95 1.00
           15    673       7.04 0.009     121.95    0.100     77.00        1.028 0.95 1.00
           15    674      23.98 0.036      91.46    0.100     77.00        0.578 0.95 1.00
           15    675     333.24 0.203      15.24    0.100     77.00        0.205 0.95 1.00
           15    676      12.53 0.010     121.95    0.100     70.00        0.998 0.95 1.00
           15    677      34.36 0.036      91.46    0.100     70.00        0.581 0.95 1.00
           15    678     552.78 0.212      15.24    0.100     70.00        0.253 0.95 1.00
           15    679     238.39 0.187      18.29    0.100     77.00        0.198 0.95 1.00
           15    680      30.66 0.035      91.46    0.100     77.00        0.585 0.95 1.00
           15    681      34.84 0.005     121.95    0.100     77.00        1.234 0.95 1.00
           15    682     616.41 0.036      91.46    0.150     69.00        0.878 0.95 1.00
           15    683     144.75 0.013     121.95    0.150     69.00        1.213 0.95 1.00
           15    684    2585.19 0.112      60.98    0.150     69.00        0.939 0.95 1.00
           15    685    1616.53 0.188      18.29    0.150     79.00        0.523 0.95 1.00
           15    686     129.88 0.009     121.95    0.150     79.00        1.346 0.95 1.00
           15    687     234.89 0.035      91.46    0.150     79.00        0.797 0.95 1.00
           16    688    7023.56 0.125      24.39    0.300     59.00        1.402 0.95 1.00
           16    689    1071.06 0.036      91.46    0.300     59.00        1.304 0.95 1.00
           16    690     294.85 0.013     121.95    0.300     59.00        1.840 0.95 1.00
           16    691    1865.04 0.099      60.98    0.300     59.00        0.969 0.95 1.00
           16    692     218.48 0.011     121.95    0.300     59.00        1.916 0.95 1.00
           16    693     617.89 0.036      91.46    0.300     59.00        1.226 0.95 1.00
           16    694    2698.09 0.098      60.98    0.300     79.00        1.097 0.95 1.00
           16    695    1579.54 0.035      91.46    0.300     79.00        1.396 0.95 1.00
           16    696     591.25 0.013     121.95    0.300     79.00        1.895 0.95 1.00
           16    697     904.10 0.034      91.46    0.300     72.00        1.295 0.95 1.00
           16    698    1226.55 0.103      60.98    0.300     72.00        0.859 0.95 1.00
           16    699     557.50 0.012     121.95    0.300     72.00        1.932 0.95 1.00
           16    700      67.14 0.013     121.95    0.300     59.00        1.792 0.95 1.00
           16    701    2250.24 0.121      24.39    0.300     59.00        0.737 0.95 1.00
           16    702     324.82 0.037      91.46    0.300     59.00        1.163 0.95 1.00
           16    703     576.34 0.143      24.39    0.100     60.00        0.289 0.95 1.00
           16    704      25.64 0.011     121.95    0.100     60.00        0.972 0.95 1.00
           16    705      68.91 0.036      91.46    0.100     60.00        0.587 0.95 1.00
           16    706      38.14 0.013     121.95    0.100     79.00        0.929 0.95 1.00
           16    707     584.35 0.129      24.39    0.100     79.00        0.296 0.95 1.00
           16    708     150.66 0.037      91.46    0.100     79.00        0.601 0.95 1.00
           16    709      62.99 0.012     121.95    0.100     73.00        0.957 0.95 1.00
           16    710     898.32 0.160      18.29    0.100     73.00        0.314 0.95 1.00
           16    711     149.38 0.035      91.46    0.100     73.00        0.610 0.95 1.00
           16    712     667.53 0.036      91.46    0.100     66.00        0.704 0.95 1.00
           16    713    9392.15 0.171      18.29    0.100     66.00        1.503 0.95 1.00
           16    714     202.93 0.011     121.95    0.100     66.00        1.012 0.95 1.00
           16    715     992.85 0.036      91.46    0.100     83.00        0.760 0.95 1.00
           16    716    5980.89 0.167      18.29    0.100     83.00        1.058 0.95 1.00
           16    717     293.83 0.013     121.95    0.100     83.00        0.983 0.95 1.00
           16    718     365.19 0.011     121.95    0.100     77.00        1.044 0.95 1.00
           16    719    5949.00 0.229      15.24    0.100     77.00        1.028 0.95 1.00
           16    720     660.88 0.035      91.46    0.100     77.00        0.708 0.95 1.00
           16    721      73.76 0.013     121.95    0.100     66.00        0.937 0.95 1.00
           16    722     336.36 0.037      91.46    0.100     66.00        0.638 0.95 1.00
           16    723    5041.87 0.159      24.39    0.100     66.00        0.958 0.95 1.00
           16    724    7698.55 0.313       9.15    0.100     66.00        1.223 0.95 1.00
           16    725     154.96 0.037      91.46    0.100     66.00        0.602 0.95 1.00
           16    726      30.56 0.013     121.95    0.100     66.00        0.927 0.95 1.00
           16    727     161.03 0.013     121.95    0.100     97.22        0.956 0.95 1.00
           16    728     621.59 0.036      91.46    0.100     97.22        0.696 0.95 1.00
           16    729    4060.96 0.134      24.39    0.100     97.22        0.830 0.95 1.00
           16    730    1200.39 0.035      91.46    0.100     97.62        0.800 0.95 1.00
           16    731    2859.66 0.112      60.98    0.100     97.62        0.800 0.95 1.00
           16    732     372.56 0.013     121.95    0.100     97.62        0.999 0.95 1.00
           16    733    1023.02 0.141      24.39    0.100     97.48        0.367 0.95 1.00
           16    734     407.78 0.035      91.46    0.100     97.48        0.661 0.95 1.00
           16    735     181.75 0.011     121.95    0.100     97.48        1.008 0.95 1.00
           16    736    1277.81 0.117      60.98    0.100     63.29        0.552 0.95 1.00
           16    737     271.90 0.036      91.46    0.100     63.29        0.630 0.95 1.00
           16    738      74.83 0.012     121.95    0.100     63.29        0.960 0.95 1.00
           16    739     941.65 0.104      60.98    0.100     81.09        0.507 0.95 1.00
           16    740     172.56 0.013     121.95    0.100     81.09        0.959 0.95 1.00
           16    741     519.77 0.035      91.46    0.100     81.09        0.682 0.95 1.00
           16    742      68.64 0.036      91.46    0.100     55.00        0.587 0.95 1.00
           16    743     451.43 0.137      24.39    0.100     55.00        0.268 0.95 1.00
           16    744      22.12 0.013     121.95    0.100     55.00        0.924 0.95 1.00
           16    745     186.55 0.036      91.46    0.100     77.00        0.613 0.95 1.00
           16    746     845.52 0.128      24.39    0.100     77.00        0.342 0.95 1.00
           16    747      57.18 0.013     121.95    0.100     77.00        0.933 0.95 1.00
           16    748     861.99 0.152      24.39    0.100     70.00        0.336 0.95 1.00
           16    749      56.21 0.012     121.95    0.100     70.00        0.955 0.95 1.00
           16    750     121.94 0.035      91.46    0.100     70.00        0.604 0.95 1.00
           16    751     503.18 0.036      91.46    0.150     69.00        0.831 0.95 1.00
           16    752     146.21 0.012     121.95    0.150     69.00        1.234 0.95 1.00
           16    753    5007.97 0.145      24.39    0.150     69.00        1.005 0.95 1.00
           16    754     535.65 0.036      91.46    0.150     84.00        0.837 0.95 1.00
           16    755     163.47 0.013     121.95    0.150     84.00        1.210 0.95 1.00
           16    756    1576.52 0.114      60.98    0.150     84.00        0.689 0.95 1.00
           16    757     314.30 0.012     121.95    0.150     79.00        1.269 0.95 1.00
           16    758     625.20 0.034      91.46    0.150     79.00        0.866 0.95 1.00
           16    759    1705.20 0.136      24.39    0.150     79.00        0.527 0.95 1.00
           16    760    1834.42 0.137      24.39    0.150     69.00        0.547 0.95 1.00
           16    761      38.46 0.013     121.95    0.150     69.00        1.181 0.95 1.00
           16    762     192.54 0.037      91.46    0.150     69.00        0.765 0.95 1.00
           17    763       3.17 0.006     121.95    0.300     59.00        2.241 0.95 1.00
           17    764       3.27 0.035      91.46    0.300     59.00        1.114 0.95 1.00
           17    765       3.97 0.120      24.39    0.300     59.00        0.352 0.95 1.00
           17    766       2.78 0.036      91.46    0.300     72.00        1.104 0.95 1.00
           17    767      11.60 0.124      24.39    0.300     72.00        0.358 0.95 1.00
           17    768       0.89 0.011     121.95    0.300     72.00        1.866 0.95 1.00
           17    769       1.39 0.039      91.46    0.300     79.00        1.076 0.95 1.00
           17    770       1.09 0.007     121.95    0.300     79.00        2.137 0.95 1.00
           17    771       8.03 0.103      60.98    0.300     79.00        0.639 0.95 1.00
           17    772       5.97 0.174      18.29    0.100     60.00        0.143 0.95 1.00
           17    773       0.30 0.021      91.46    0.100     60.00        0.669 0.95 1.00
           17    774       1.62 0.038      91.46    0.100     73.00        0.562 0.95 1.00
           17    775      10.73 0.136      24.39    0.100     73.00        0.186 0.95 1.00
           17    776       0.51 0.012     121.95    0.100     73.00        0.941 0.95 1.00
           17    777     127.67 0.185      18.29    0.100     66.00        0.250 0.95 1.00
           17    778       4.09 0.013     121.95    0.100     66.00        0.923 0.95 1.00
           17    779      13.73 0.035      91.46    0.100     66.00        0.590 0.95 1.00
           17    780     227.76 0.160      24.39    0.100     77.00        0.359 0.95 1.00
           17    781      18.03 0.036      91.46    0.100     77.00        0.590 0.95 1.00
           17    782       4.40 0.014     121.95    0.100     77.00        0.903 0.95 1.00
           17    783      10.01 0.003     121.95    0.010     92.00        0.370 0.95 1.00
           17    784       9.23 0.106      60.98    0.010     92.00        0.093 0.95 1.00
           17    785       4.95 0.036      91.46    0.010     92.00        0.150 0.95 1.00
           17    786       2.41 0.012     121.95    0.100     97.22        0.943 0.95 1.00
           17    787       4.51 0.034      91.46    0.100     97.22        0.585 0.95 1.00
           17    788      38.35 0.169      18.29    0.100     97.22        0.177 0.95 1.00
           17    789      16.34 0.036      91.46    0.100     97.48        0.588 0.95 1.00
           17    790      69.36 0.131      24.39    0.100     97.48        0.243 0.95 1.00
           17    791       3.67 0.013     121.95    0.100     97.48        0.923 0.95 1.00
           17    792       6.69 0.161      18.29    0.100     63.29        0.147 0.95 1.00
           17    793       0.51 0.041      91.46    0.100     63.29        0.548 0.95 1.00
           17    794       6.49 0.112      60.98    0.100     74.86        0.326 0.95 1.00
           17    795       1.75 0.037      91.46    0.100     74.86        0.567 0.95 1.00
           17    796       0.62 0.009     121.95    0.100     74.86        1.026 0.95 1.00
           17    797      63.57 0.123      24.39    0.100     70.00        0.242 0.95 1.00
           17    798       6.79 0.037      91.46    0.100     70.00        0.573 0.95 1.00
           17    799       1.12 0.013     121.95    0.100     70.00        0.919 0.95 1.00
           17    800       0.90 0.002     121.95    0.150     69.00        2.053 0.95 1.00
           17    801       5.07 0.134      24.39    0.150     69.00        0.228 0.95 1.00
           17    802       0.56 0.038      91.46    0.150     69.00        0.715 0.95 1.00
           17    803       2.48 0.035      91.46    0.150     79.00        0.735 0.95 1.00
           17    804      12.05 0.110      60.98    0.150     79.00        0.422 0.95 1.00
           17    805       0.45 0.014     121.95    0.150     79.00        1.145 0.95 1.00
           18    806    2306.82 0.154      24.39    0.300     79.00        0.467 0.95 1.00
           18    807     269.79 0.011     121.95    0.300     79.00        1.887 0.95 1.00
           18    808     637.43 0.035      91.46    0.300     79.00        1.156 0.95 1.00
           18    809    1435.54 0.035      91.46    0.300     59.00        1.205 0.95 1.00
           18    810    4806.51 0.113      60.98    0.300     59.00        0.888 0.95 1.00
           18    811     429.54 0.013     121.95    0.300     59.00        1.807 0.95 1.00
           18    812     861.26 0.036      91.46    0.300     59.00        1.161 0.95 1.00
           18    813    2381.83 0.104      60.98    0.300     59.00        0.777 0.95 1.00
           18    814     306.21 0.012     121.95    0.300     59.00        1.842 0.95 1.00
           18    815   19764.18 0.241      15.24    0.100     83.00        1.063 0.95 1.00
           18    816     972.69 0.036      91.46    0.100     83.00        0.637 0.95 1.00
           18    817     249.43 0.013     121.95    0.100     83.00        0.938 0.95 1.00
           18    818     813.46 0.037      91.46    0.100     83.00        0.623 0.95 1.00
           18    819     156.47 0.013     121.95    0.100     83.00        0.931 0.95 1.00
           18    820   79140.18 0.384       9.15    0.100     83.00        3.280 0.95 1.00
           18    821     145.54 0.012     121.95    0.100     97.62        0.953 0.95 1.00
           18    822    2745.31 0.171      18.29    0.100     97.62        0.305 0.95 1.00
[...]
           54   2909   17820.55        31.000         0.048      0.000   0.020        1.000  0.050    0.000     0.000
           54   2910    3147.40        31.000         0.048      0.000   0.020        1.000  0.050    0.000     0.000
           54   2911    1029.16        31.000         0.048      0.000   0.020        1.000  0.050    0.000     0.000
           54   2912    7373.13        31.000         0.048      0.000   0.020        1.000  0.050    0.000     0.000
           54   2913   80057.39        31.000         0.048      0.000   0.020        1.000  0.050    0.000     0.000
           54   2914    2346.78        31.000         0.048      0.000   0.020        1.000  0.050    0.000     0.000
           54   2915    2605.17        31.000         0.048      0.000   0.020        1.000  0.050    0.000     0.000
           54   2916     431.60        31.000         0.048      0.000   0.020        1.000  0.050    0.000     0.000
           54   2917     981.89        31.000         0.048      0.000   0.020        1.000  0.050    0.000     0.000
           54   2918     125.83        31.000         0.048      0.000   0.020        1.000  0.050    0.000     0.000
           54   2919      68.19        31.000         0.048      0.000   0.020        1.000  0.050    0.000     0.000
           54   2920    2985.71        31.000         0.048      0.000   0.020        1.000  0.050    0.000     0.000
           54   2921    1302.76        31.000         0.048      0.000   0.020        1.000  0.050    0.000     0.000
           54   2922    1628.12        31.000         0.048      0.000   0.020        1.000  0.050    0.000     0.000
           54   2923     739.69        31.000         0.048      0.000   0.020        1.000  0.050    0.000     0.000
           54   2924    4565.68        31.000         0.048      0.000   0.020        1.000  0.050    0.000     0.000
           54   2925     462.58        31.000         0.048      0.000   0.020        1.000  0.050    0.000     0.000
           54   2926    1266.74        31.000         0.048      0.000   0.020        1.000  0.050    0.000     0.000
           54   2927     874.56        31.000         0.048      0.000   0.020        1.000  0.050    0.000     0.000
           54   2928     633.29        31.000         0.048      0.000   0.020        1.000  0.050    0.000     0.000
           54   2929     664.61        31.000         0.048      0.000   0.020        1.000  0.050    0.000     0.000
           54   2930    4543.08        31.000         0.048      0.000   0.020        1.000  0.050    0.000     0.000
           54   2931     779.83        31.000         0.048      0.000   0.020        1.000  0.050    0.000     0.000
           54   2932     233.13        31.000         0.048      0.000   0.020        1.000  0.050    0.000     0.000
           54   2933     814.60        31.000         0.048      0.000   0.020        1.000  0.050    0.000     0.000
           54   2934    3404.14        31.000         0.048      0.000   0.020        1.000  0.050    0.000     0.000
           54   2935     336.75        31.000         0.048      0.000   0.020        1.000  0.050    0.000     0.000
           54   2936   13312.41        31.000         0.048      0.000   0.020        1.000  0.050    0.000     0.000
           54   2937    1594.43        31.000         0.048      0.000   0.020        1.000  0.050    0.000     0.000
           54   2938     499.40        31.000         0.048      0.000   0.020        1.000  0.050    0.000     0.000
           54   2939    4140.92        31.000         0.048      0.000   0.020        1.000  0.050    0.000     0.000
           54   2940   33386.14        31.000         0.048      0.000   0.020        1.000  0.050    0.000     0.000
           54   2941    1295.43        31.000         0.048      0.000   0.020        1.000  0.050    0.000     0.000
           54   2942    1374.39        31.000         0.048      0.000   0.020        1.000  0.050    0.000     0.000
           54   2943    2707.99        31.000         0.048      0.000   0.020        1.000  0.050    0.000     0.000
           54   2944    5329.75        31.000         0.048      0.000   0.020        1.000  0.050    0.000     0.000
           54   2945    5894.46        31.000         0.048      0.000   0.020        1.000  0.050    0.000     0.000
           54   2946    6765.54        31.000         0.048      0.000   0.020        1.000  0.050    0.000     0.000
           54   2947    3764.71        31.000         0.048      0.000   0.020        1.000  0.050    0.000     0.000
           54   2948    8158.85        31.000         0.048      0.000   0.020        1.000  0.050    0.000     0.000
           54   2949    1707.09        31.000         0.048      0.000   0.020        1.000  0.050    0.000     0.000
           54   2950    3559.77        31.000         0.048      0.000   0.020        1.000  0.050    0.000     0.000
           55   2951    1519.41        31.000         0.048      0.000   0.020        1.000  0.050    0.000     0.000
           55   2952     158.41        31.000         0.048      0.000   0.020        1.000  0.050    0.000     0.000
           55   2953     570.37        31.000         0.048      0.000   0.020        1.000  0.050    0.000     0.000
           55   2954     806.22        31.000         0.048      0.000   0.020        1.000  0.050    0.000     0.000
           55   2955     230.78        31.000         0.048      0.000   0.020        1.000  0.050    0.000     0.000
           55   2956     436.43        31.000         0.048      0.000   0.020        1.000  0.050    0.000     0.000
           55   2957    2103.63        31.000         0.048      0.000   0.020        1.000  0.050    0.000     0.000
           55   2958    1534.15        31.000         0.048      0.000   0.020        1.000  0.050    0.000     0.000
           55   2959    3169.04        31.000         0.048      0.000   0.020        1.000  0.050    0.000     0.000
           55   2960    1164.32        31.000         0.048      0.000   0.020        1.000  0.050    0.000     0.000
           55   2961     347.20        31.000         0.048      0.000   0.020        1.000  0.050    0.000     0.000
           55   2962    3850.39        31.000         0.048      0.000   0.020        1.000  0.050    0.000     0.000
           55   2963    1553.31        31.000         0.048      0.000   0.020        1.000  0.050    0.000     0.000
           55   2964     598.97        31.000         0.048      0.000   0.020        1.000  0.050    0.000     0.000
           55   2965     966.83        31.000         0.048      0.000   0.020        1.000  0.050    0.000     0.000
           55   2966    3366.10        31.000         0.048      0.000   0.020        1.000  0.050    0.000     0.000
           55   2967    5212.37        31.000         0.048      0.000   0.020        1.000  0.050    0.000     0.000
           55   2968    2443.60        31.000         0.048      0.000   0.020        1.000  0.050    0.000     0.000
           55   2969     600.61        31.000         0.048      0.000   0.020        1.000  0.050    0.000     0.000
           55   2970     462.40        31.000         0.048      0.000   0.020        1.000  0.050    0.000     0.000
           55   2971     732.91        31.000         0.048      0.000   0.020        1.000  0.050    0.000     0.000
           55   2972    2470.41        31.000         0.048      0.000   0.020        1.000  0.050    0.000     0.000
           55   2973    4647.49        31.000         0.048      0.000   0.020        1.000  0.050    0.000     0.000
           55   2974    2611.16        31.000         0.048      0.000   0.020        1.000  0.050    0.000     0.000
           55   2975    4350.83        31.000         0.048      0.000   0.020        1.000  0.050    0.000     0.000
           55   2976    1106.55        31.000         0.048      0.000   0.020        1.000  0.050    0.000     0.000
           55   2977     454.70        31.000         0.048      0.000   0.020        1.000  0.050    0.000     0.000
           55   2978    8082.77        31.000         0.048      0.000   0.020        1.000  0.050    0.000     0.000
           55   2979    2388.93        31.000         0.048      0.000   0.020        1.000  0.050    0.000     0.000
           55   2980    5913.67        31.000         0.048      0.000   0.020        1.000  0.050    0.000     0.000
           55   2981    2964.75        31.000         0.048      0.000   0.020        1.000  0.050    0.000     0.000
           55   2982    5889.02        31.000         0.048      0.000   0.020        1.000  0.050    0.000     0.000
           55   2983   56678.48        31.000         0.048      0.000   0.020        1.000  0.050    0.000     0.000
           55   2984    9776.27        31.000         0.048      0.000   0.020        1.000  0.050    0.000     0.000
           55   2985   24624.44        31.000         0.048      0.000   0.020        1.000  0.050    0.000     0.000
           55   2986   48792.91        31.000         0.048      0.000   0.020        1.000  0.050    0.000     0.000
           55   2987     904.98        31.000         0.048      0.000   0.020        1.000  0.050    0.000     0.000
           55   2988    1469.01        31.000         0.048      0.000   0.020        1.000  0.050    0.000     0.000
           55   2989   45771.00        31.000         0.048      0.000   0.020        1.000  0.050    0.000     0.000
           55   2990     258.82        31.000         0.048      0.000   0.020        1.000  0.050    0.000     0.000
           55   2991     474.71        31.000         0.048      0.000   0.020        1.000  0.050    0.000     0.000
           55   2992   27243.35        31.000         0.048      0.000   0.020        1.000  0.050    0.000     0.000
           55   2993    1048.60        31.000         0.048      0.000   0.020        1.000  0.050    0.000     0.000
           55   2994     845.58        31.000         0.048      0.000   0.020        1.000  0.050    0.000     0.000
           55   2995    1108.19        31.000         0.048      0.000   0.020        1.000  0.050    0.000     0.000
           55   2996    1695.57        31.000         0.048      0.000   0.020        1.000  0.050    0.000     0.000
           55   2997    1103.59        31.000         0.048      0.000   0.020        1.000  0.050    0.000     0.000
           55   2998     640.02        31.000         0.048      0.000   0.020        1.000  0.050    0.000     0.000
           55   2999    7417.21        31.000         0.048      0.000   0.020        1.000  0.050    0.000     0.000
           55   3000    4284.61        31.000         0.048      0.000   0.020        1.000  0.050    0.000     0.000
           55   3001    4574.70        31.000         0.048      0.000   0.020        1.000  0.050    0.000     0.000
           55   3002     754.75        31.000         0.048      0.000   0.020        1.000  0.050    0.000     0.000
           55   3003    1280.97        31.000         0.048      0.000   0.020        1.000  0.050    0.000     0.000
           55   3004     599.63        31.000         0.048      0.000   0.020        1.000  0.050    0.000     0.000
           55   3005    1081.19        31.000         0.048      0.000   0.020        1.000  0.050    0.000     0.000
           55   3006     492.50        31.000         0.048      0.000   0.020        1.000  0.050    0.000     0.000
           55   3007    3197.92        31.000         0.048      0.000   0.020        1.000  0.050    0.000     0.000
           55   3008    3677.42        31.000         0.048      0.000   0.020        1.000  0.050    0.000     0.000
           55   3009    2554.76        31.000         0.048      0.000   0.020        1.000  0.050    0.000     0.000
           55   3010    1001.82        31.000         0.048      0.000   0.020        1.000  0.050    0.000     0.000
           55   3011     513.73        31.000         0.048      0.000   0.020        1.000  0.050    0.000     0.000
           55   3012    1133.13        31.000         0.048      0.000   0.020        1.000  0.050    0.000     0.000
           55   3013    3199.99        31.000         0.048      0.000   0.020        1.000  0.050    0.000     0.000
           55   3014    3557.47        31.000         0.048      0.000   0.020        1.000  0.050    0.000     0.000
           55   3015    4830.04        31.000         0.048      0.000   0.020        1.000  0.050    0.000     0.000
           55   3016    1367.85        31.000         0.048      0.000   0.020        1.000  0.050    0.000     0.000
           55   3017    8607.68        31.000         0.048      0.000   0.020        1.000  0.050    0.000     0.000
           55   3018    3940.74        31.000         0.048      0.000   0.020        1.000  0.050    0.000     0.000
           55   3019    7219.72        31.000         0.048      0.000   0.020        1.000  0.050    0.000     0.000
           55   3020   34961.21        31.000         0.048      0.000   0.020        1.000  0.050    0.000     0.000
           55   3021   49311.57        31.000         0.048      0.000   0.020        1.000  0.050    0.000     0.000
           55   3022   25055.98        31.000         0.048      0.000   0.020        1.000  0.050    0.000     0.000

         Tributary/Main Channel Characteristics
              |--------------Tributary--------------------|---------------------Main---------------------------|
          Sub  Length(km) Slope Width(m) Cond(mm/hr)     N Length(km) Slope Width(m) Depth(m) Cond(mm/hr)     N
            1      122.27 0.005   115.24      0.0000 0.014      24.63 0.000   115.24     2.60     68.0670 0.011
            2      227.73 0.003   119.00      0.0000 0.014     104.74 0.001   119.00     2.65      0.0000 0.014
            3      122.14 0.001   115.99      0.0000 0.014      30.97 0.001  1336.83    13.31      0.0000 0.014
            4       41.73 0.009    45.33      0.0000 0.014      13.89 0.001   221.44     4.01      0.0000 0.014
            5       25.50 0.010    27.37      0.0000 0.014      14.11 0.001   211.86     3.90      0.0000 0.014
            6       66.15 0.003    67.28      0.0000 0.014      46.33 0.003   207.63     3.85      0.0000 0.014
            7      100.63 0.001    92.81      0.0000 0.014      77.12 0.000  1323.15    13.22      0.0000 0.014
            8       75.51 0.016    91.31      0.0000 0.014      12.07 0.000    91.31     2.22      0.0000 0.014
            9       88.82 0.016    83.24      0.0000 0.014      54.69 0.003   132.38     2.85      0.0000 0.014
           10      311.48 0.003   139.56      0.0000 0.014     195.81 0.000   139.56     2.95      0.0000 0.014
           11      135.20 0.003   111.40      0.0000 0.014     131.23 0.001   301.60     4.93      0.0000 0.014
           12      417.55 0.002   215.98      0.0000 0.014      12.48 0.005   273.58     4.62      0.0000 0.014
           13      313.34 0.004   202.25      0.0000 0.014     198.30 0.002   202.25     3.78      0.0000 0.014
           14      107.12 0.001   170.89      0.0000 0.014      71.09 0.000  1313.66    13.16      0.0000 0.014
           15       66.65 0.002    57.30      0.0000 0.014      51.38 0.001   357.31     5.52      0.0000 0.014
           16       89.81 0.002    76.79      0.0000 0.014      85.87 0.000   319.74     5.13      0.0000 0.014
           17        5.12 0.012     4.20      0.0000 0.014       1.21 0.000   534.89     7.23      0.0000 0.014
           18      111.94 0.014   103.78      0.0000 0.014      53.85 0.000   383.96     5.80      0.0000 0.014
           19      101.68 0.002    87.09      0.0000 0.014      82.86 0.000   297.26     4.89      0.0000 0.014
           20       19.07 0.006    21.62      0.0000 0.014      13.26 0.000   299.52     4.91      0.0000 0.014
           21      139.11 0.003   132.12      0.0000 0.014      52.89 0.001   132.12     2.85      0.0000 0.014
           22       69.19 0.004    48.43      0.0000 0.014      18.85 0.000   351.16     5.46      0.0000 0.014
           23      155.89 0.010   115.38      0.0000 0.014      69.74 0.005   115.38     2.60      0.0000 0.014
           24      146.38 0.011   110.91      0.0000 0.014      70.49 0.000   557.87     7.43      0.0000 0.014
           25       64.35 0.002    50.20      0.0000 0.014      30.67 0.000   305.36     4.97      0.0000 0.014
           26      115.15 0.010    91.26      0.0000 0.014      25.81 0.000   257.10     4.44      0.0000 0.014
           27      274.80 0.005   210.31      0.0000 0.014     166.89 0.002   210.31     3.88      0.0000 0.014
           28        2.89 0.027   118.08      0.0000 0.014      81.94 0.000   797.07     9.43      0.0000 0.014
           29      218.83 0.001   174.55      0.0000 0.014     178.91 0.000   253.09     4.39      0.0000 0.014
           30      122.31 0.011   119.68      0.0000 0.014      35.34 0.001   119.68     2.66      0.0000 0.014
           31      144.18 0.006   129.49      0.0000 0.014      26.40 0.000   188.93     3.61      0.0000 0.014
           32      114.15 0.012   104.66      0.0000 0.014      64.81 0.004   228.57     4.10      0.0000 0.014
           33      165.25 0.001   124.41      0.0000 0.014     158.75 0.000   159.16     3.22      0.0000 0.014
           34       84.47 0.002    82.83      0.0000 0.014       2.69 0.001    82.83     2.09      0.0000 0.014
           35       73.51 0.002    81.81      0.0000 0.014      25.09 0.000   261.11     4.48      0.0000 0.014
           36      174.03 0.001   203.23      0.0000 0.014     127.82 0.000  1215.60    12.49      0.0000 0.014
           37      110.16 0.007   116.09      0.0000 0.014      67.59 0.003   237.76     4.21      0.0000 0.014
           38      208.90 0.001   122.89      0.0000 0.014     119.66 0.001   122.89     2.71      0.0000 0.014
           39      119.52 0.008   141.26      0.0000 0.014      40.32 0.002   141.26     2.97      0.0000 0.014
           40       29.22 0.007    22.35      0.0000 0.014      19.61 0.002   110.14     2.52      0.0000 0.014
           41       86.16 0.004    98.92      0.0000 0.014      14.58 0.000    98.92     2.35      0.0000 0.014
           42      130.91 0.001   125.19      0.0000 0.014      89.73 0.000   889.83    10.15      0.0000 0.014
           43      114.09 0.004   105.05      0.0000 0.014       5.24 0.000   904.91    10.26      0.0000 0.014
           44      144.99 0.006   105.44      0.0000 0.014      41.71 0.004   105.44     2.45      0.0000 0.014
           45      167.69 0.004   104.83      0.0000 0.014      34.49 0.000   104.83     2.44      0.0000 0.014
           46       49.74 0.009    52.12      0.0000 0.014      10.19 0.000   936.40    10.50      0.0000 0.014
           47      135.81 0.002    92.97      0.0000 0.014      69.35 0.000   917.10    10.35      0.0000 0.014
           48      152.18 0.003   121.15      0.0000 0.014     141.57 0.001   167.35     3.33      0.0000 0.014
           49       56.86 0.001    71.85      0.0000 0.014      26.82 0.000  1178.21    12.24      0.0000 0.014
           50      137.58 0.001   160.76      0.0000 0.014      82.64 0.000  1171.52    12.19      0.0000 0.014
           51      115.39 0.001   156.55      0.0000 0.014      23.94 0.001  1125.08    11.87      0.0000 0.014
           52      185.77 0.001   140.72      0.0000 0.014      70.69 0.000   234.06     4.17      0.0000 0.014
           53      234.47 0.002   272.62      0.0000 0.014     112.33 0.000  1099.67    11.69      0.0000 0.014
           54      206.08 0.001   139.11      0.0000 0.014      34.68 0.000   139.11     2.94      0.0000 0.014
           55      145.71 0.003   205.90      0.0000 0.014     112.92 0.000   980.71    10.83      0.0000 0.014
