1
    SWAT Jun 11 2014    VER 2012/Rev 627                                            
